7
molecule
C 0.5508496198015084 0.7014144687215409 -0.3448376553529682
C -0.08486913741012965 -0.9491595383190902 0.07889080770409615
C -0.29041154569185995 -0.015153048474970326 -0.4947307923532152
C -0.41352844728530475 0.8343579587071688 0.2171896895520397
C 0.7539723561772455 -0.4008600506522992 -0.4303107205162684
C 0.2904115879634874 0.015153137241197222 0.49473078222769296
C -0.8064244335549471 -0.18575292722354741 0.47906788873862305
