7
molecule
C 0.5283889408778447 0.6959483234408147 -0.36369966017232075
C -0.09028474282358703 -0.7758188005967404 0.23297581955483695
C -0.2952652302882924 -0.026425101267518344 -0.5610415270222882
C -0.36857034069166295 0.6566264927301386 0.31196414390354604
C 0.7423921899418601 -0.40560984219319945 -0.424442445725932
C 0.5351864884955493 0.07305730033619934 0.5606396478743321
C -1.0518473055117117 -0.21777837244969442 0.24360402158782588
