7
molecule
C 0.192299442256864 -0.8242446941449798 -0.812586213379888
C 0.7123039422244744 -0.06554962956938118 -0.1795381623382642
C 0.31865308938262277 -0.05180456769438538 0.8648557410393523
C -0.3610959134472707 -0.3412813940314213 0.026975109707277095
C -0.1026447452415371 0.25595983702698866 -0.880992609277169
C -0.746334255867984 0.30061078888524395 0.8539750733792556
C -0.013181559307169395 0.7263096595279349 0.12731106086943586
