9
Properties=species:S:1:pos:R:3 pbc="F F F"
C       -0.12631103      -0.15187314      -0.55705853
C       -0.07726629       1.26866110      -0.01331991
O        0.14366056      -1.12327554       0.43722984
H       -1.13097534      -0.38188513      -0.92511046
H        0.56292711      -0.25648233      -1.41008555
H       -0.77458846       1.37862471       0.82287751
H        0.92922210       1.51688111       0.34659365
H       -0.34195708       1.99619843      -0.78858628
H        1.03985033      -0.96603597       0.75927411
