20
Properties=species:S:1:pos:R:3 pbc="F F F"
C        0.93498492       0.35562223      -0.12541612
C        2.17888090      -0.48525791      -0.35512591
O        2.12257119      -1.63427529      -0.75490394
N        3.34573008       0.16849434      -0.04960973
C        4.67141063      -0.32135262      -0.09648071
C        5.69165920       0.53851270       0.30909987
C        7.01995642       0.13046032       0.29260628
C        7.34520356      -1.15392701      -0.13398727
O        8.62773208      -1.61920093      -0.17468017
C        6.32990178      -2.01629415      -0.54080632
C        5.00260605      -1.61136192      -0.52561049
H        0.74633179       0.46475959       0.94832412
H        0.08627334      -0.15533867      -0.58042699
H        1.03184210       1.35669929      -0.55892050
H        3.25341773       1.11968963       0.27502306
H        5.45144348       1.54583273       0.64604687
H        7.79992912       0.81866065       0.61429739
H        9.22275710      -0.92388995       0.13178841
H        6.59591833      -3.01578727      -0.87180610
H        4.21699701      -2.28466205      -0.84169365
