16
Properties=species:S:1:pos:R:3 pbc="F F F"
C        1.64331390      -0.16469825      -0.02616916
C        0.17728395      -0.23958076      -0.01397734
C       -0.56794850       0.95596801       0.05115780
O       -0.00599833       2.17036518       0.10354049
C       -1.96818720       0.88797618       0.06314471
C       -2.60389026      -0.33731070       0.01120127
C       -1.87190225      -1.53038059      -0.05384207
C       -0.49282966      -1.47285366      -0.06581902
O        2.28917053       0.87553332       0.01664312
O        2.26299559      -1.35202978      -0.08953829
H        0.96811677       2.05090459       0.08764331
H       -2.52361715       1.81925458       0.11385203
H       -3.69063425      -0.37199806       0.02127203
H       -2.38299420      -2.48731346      -0.09424446
H        0.09866480      -2.38186858      -0.11572672
H        3.21443437      -1.15680346      -0.09178998
