9
molecule
C 0.010958421979501956 -0.4486535042035078 -0.4096145441057563
C 0.07981602894661069 0.973479709243472 0.1652222775020839
O 0.41677977890030865 -1.442991789131414 0.5442306547030865
H -1.0127837470632042 -0.6581013167738281 -0.7455405834238465
H 0.6621402261368857 -0.5202551526011886 -1.2923442010740938
H 0.3267060194681747 0.9428268721785493 1.239271599091523
H 0.8445205238552207 1.5873625041747035 -0.3479620765631217
H -0.8930063568330477 1.487752953811605 0.04725838940315761
H -0.35660489896331954 -2.029850332939579 0.6660367215657574
