9
molecule
C -0.1373744347867101 -0.5307520214926109 -0.43403456229376647
C -0.08688007974941654 0.905666396184721 0.12710021013519276
O 0.16971425138256913 -1.5448409909609602 0.559751755821884
H -1.1450703091800591 -0.7464606203171126 -0.8409982028264857
H 0.5740961814809281 -0.633807428587015 -1.2792410008278094
H -1.1071685597131995 1.4087259460701165 0.06851336537522634
H 0.2283319926441819 0.894529717253492 1.2229100673078406
H 0.6655448110692977 1.5453973702761474 -0.43992139162338584
H 0.496262849359742 -1.0477759945055989 1.3560121451419713
