9
molecule
C -0.16262581722886993 -0.4776186289972203 -0.344322351618108
C -0.1324731834654021 0.9765069100409494 0.13763230474347193
O 0.13674176275144878 -1.3881144944968105 0.7208156905251738
H -1.1528450811822115 -0.7241225936741791 -0.7275979165211519
H 0.5422905845828596 -0.6000975251243766 -1.17080939733805
H -1.083297835470809 1.4658428053396824 -0.06511253943969221
H 0.04632938643083317 1.0026223380990251 1.2102440300877098
H 0.6556188949852931 1.5404515879624743 -0.3553455923834381
H 0.9692913007457494 -1.8926139120412055 0.426706830458901
