9
molecule
C -0.14391970511336571 -0.5321345255293176 -0.4331280444963686
C -0.08853561473197132 0.9061933592771869 0.12787660796278308
O 0.19483133963574012 -1.546009024500307 0.5555913752505661
H -1.1622945429449114 -0.7546874389442664 -0.8171552725063917
H 0.5499370241068504 -0.6311898308302323 -1.297225687419384
H -1.1056272453344187 1.4284958090074236 0.026175566821466177
H 0.1836621859136992 0.8885269585175773 1.244299872591999
H 0.7036691714276979 1.5355060902381474 -0.414157741082827
H 0.5245506098345994 -1.0449843932186398 1.3481315175171225
