9
molecule
C 0.012222260864153687 -0.4501894936990431 -0.4127438207245507
C 0.07982022990463271 0.9798275173386743 0.16693399796366679
O 0.42020307379862804 -1.4516589918459637 0.552520572043193
H -1.0248390321832024 -0.6635415785798404 -0.750617477211718
H 0.6714729885047745 -0.5255629407154974 -1.3080278047263647
H 0.3367436248786963 0.9335490992683828 1.275198298331506
H 0.8722283623286046 1.6068736720873058 -0.3699389688796525
H -0.9303951518063276 1.5038928344963045 0.041809952090740087
H -0.358911714236815 -2.0415969239845735 0.6714821228341411
