9
molecule
C 0.011003168561558169 -0.4488186177343299 -0.40979569539495964
C 0.07980812998278106 0.9737151126652711 0.1652258896907698
O 0.4169576119186826 -1.4434402084546414 0.5447094625163638
H -1.0134214153134788 -0.658334099696354 -0.7459126359980366
H 0.662568821070113 -0.5205760741312337 -1.293149436518612
H 0.3271797626615114 0.9422180674015224 1.2410181793739867
H 0.8458921357354705 1.58848660874791 -0.3489577687622896
H -0.8948342995556096 1.4886386449823257 0.047020700894958425
H -0.35662697023430756 -2.0303183073922266 0.6664025237146618
