9
molecule
C 0.0019424683619828575 -0.5051673068356366 -0.47340797968126236
C 0.036474450157945634 0.8863857702131815 0.16591568499475975
O 0.32273249951152 -1.5566382544159783 0.4289305489559249
H -0.9732360476922556 -0.6900624294540457 -0.9299180566537683
H 0.7411291226900883 -0.5757768638732763 -1.2689837798040846
H -0.9103291446618085 1.412407432686531 0.04649773122109435
H 0.24507802230684547 0.8159827209351275 1.2328387490628228
H 0.8137226597471346 1.5103865122327582 -0.2725732224120337
H -0.36671127380770846 -1.6110336292390957 1.0935656488079388
