9
molecule
C 0.012133971788917987 -0.45015442802615224 -0.41235873413673263
C 0.07982520335707367 0.9791253091155336 0.16675789307902866
O 0.4198600359019966 -1.450799932233084 0.5518124522928317
H -1.023803083853284 -0.6629390683857296 -0.7501809586493567
H 0.6705319700475573 -0.5250019786262651 -1.3064663773749943
H 0.3357676894255522 0.9344358584106953 1.2716948774625223
H 0.8694925237648444 1.6049506032627285 -0.36778027947959374
H -0.9266807080571655 1.502197971463988 0.042306142613098965
H -0.3585847504376155 -2.0402233728427848 0.6708262265653601
