9
molecule
C -0.15412811043107677 -0.47899224569232635 -0.3522521399446577
C -0.13396296919130696 0.9848557095949081 0.13935395889919833
O 0.1006868230303139 -1.4038610704044956 0.7378352263246145
H -1.1445991889617613 -0.7265567840514665 -0.7936837942378613
H 0.602989517624895 -0.6058705478434561 -1.159179847969736
H -1.1610652368017023 1.4605464801269337 -0.0004231850658569236
H 0.13548246106714446 0.9949321144419483 1.2434376133344547
H 0.6367425266143203 1.5941811007727318 -0.43964360646283324
H 0.9378854256066139 -1.9165598453412547 0.4571127148625472
