9
molecule
C -0.14480797686119426 -0.4748100649499494 -0.35237542925673065
C -0.13536156226859095 0.9809636934578887 0.13788723697232036
O 0.07743316491819999 -1.3976198552815375 0.7329244453166714
H -1.1123453501541058 -0.7147314354654626 -0.8149314029724889
H 0.6234631723963838 -0.6004490232605936 -1.1311951739767325
H -1.1440673693326688 1.433925033063873 0.04461091574359232
H 0.1686126681845912 1.0056222875956102 1.2022875339264136
H 0.5798647052977058 1.5911675435676196 -0.44992418306165743
H 0.9077959159623377 -1.9214941201228395 0.4634651108407587
