9
molecule
C -0.14397642907692995 -0.5322242474156818 -0.43342569055953406
C -0.08864180509078477 0.9068112264517514 0.127786096726959
O 0.19508023291699092 -1.5469255824618753 0.5565199411931013
H -1.1634058837676924 -0.7554858855460957 -0.8179771086037428
H 0.5505539625655755 -0.6319496000293361 -1.2983957324794473
H -1.1097041477804723 1.4301016025026345 0.025637379809344954
H 0.18471529363849043 0.887574158866521 1.2480678129057
H 0.7066343641424033 1.5375707873028355 -0.4165625584621943
H 0.525019789321184 -1.0457536985643172 1.3487574792996095
