9
molecule
C -0.15258767626192646 -0.47754373851552906 -0.35087525860273233
C -0.13418579742701084 0.981780862719815 0.1382348627816929
O 0.09987742467044487 -1.3987572846127179 0.7331492842028088
H -1.1354427456288487 -0.7224814305749973 -0.788256369390138
H 0.5978535858908719 -0.6030249416136438 -1.1528399364656954
H -1.1409012244860441 1.4535294610730192 0.00228044342244689
H 0.1294691106286997 0.999049716780849 1.2236295532385977
H 0.6218682893338526 1.5835644599374732 -0.42688367562644447
H 0.9340752044620678 -1.913441272802227 0.4541162821791941
