9
molecule
C -0.1561960829286551 -0.5366753733084326 -0.4431996065013967
C -0.06905699569498393 0.9161074238357129 0.07818779283652642
O 0.3045836443507814 -1.525533155147275 0.5189128661194319
H -1.2036117225513476 -0.7854889198028184 -0.7331710192725864
H 0.46609786147609117 -0.6547668690950296 -1.3578168866110414
H -1.1061383202901918 1.4125713274364677 0.10676547187794952
H 0.35376277078564256 0.9310361502919884 1.1491268084873507
H 0.6212508677381613 1.5587600926554686 -0.5765810901960811
H 0.34543364835032664 -1.077419167872434 1.3812362204542075
