9
molecule
C 0.011301763231339683 -0.44931003414772125 -0.41058311483415105
C 0.07981808126829563 0.9751863063746299 0.16567325808850702
O 0.4178719684689257 -1.445655641233463 0.5469399092916022
H -1.0166193236483938 -0.659609898581552 -0.7473015088479658
H 0.6649013322494137 -0.5218435477476712 -1.2971436338889115
H 0.32970194666009484 0.9397013438640548 1.25016200580525
H 0.8529121697211873 1.5933496435684713 -0.3544944817674066
H -0.904285441865844 1.4925136935915801 0.04558499733748288
H -0.35707075143576034 -2.032754754047185 0.6677388822628177
