9
molecule
C 0.0036263596591353036 -0.5136995613223955 -0.3974026753424393
C 0.11778591734850699 0.9517000607601708 0.032882678460776804
O 0.3624227462279795 -1.4363391265817766 0.6236417795721301
H -1.0058979047496328 -0.7282546213649158 -0.7555524418987667
H 0.6820065930053987 -0.7216195009761345 -1.222412775823904
H -0.8214440481194267 1.4885349428733206 -0.09742175598334481
H 0.39833569966425925 1.0229289382382507 1.0831262244721056
H 0.8785000777350762 1.48053540447451 -0.5392931897294454
H -0.26876380642855463 -1.3572569751300823 1.3415870791452469
