9
molecule
C -0.16183062304200752 -0.5317276045453523 -0.4367393247158077
C -0.07097775345426752 0.9108977609928032 0.07915916466659129
O 0.32088459157820687 -1.5052250551434745 0.4975707583112742
H -1.1972844565386178 -0.7835686766174325 -0.6971350060345735
H 0.42973449409354 -0.6458121261605062 -1.3515177209038631
H -1.0516777326176556 1.408789139248173 0.06440027246231876
H 0.2884378525294798 0.9372607502818392 1.1203152392195612
H 0.6233839247471771 1.5211880894847103 -0.5163189249916864
H 0.368420976927034 -1.075167945820201 1.367476591195354
