9
molecule
C -0.15625003344266963 -0.5338952545550159 -0.44148113697487923
C -0.06917582393947708 0.9139812795321957 0.07825712331569908
O 0.3001007801080333 -1.5180921949304695 0.5134234542089889
H -1.1954835034994868 -0.7819326461616171 -0.7305332185393816
H 0.4619877507689469 -0.6529082823556352 -1.3491969793507246
H -1.0844542778095005 1.4044886140636232 0.10787829450869404
H 0.34559978857785423 0.9346020722732447 1.128625437555192
H 0.6068705521437647 1.5485992119713923 -0.5618485122125386
H 0.3469986179946837 -1.076232321244662 1.3782997436935023
