9
molecule
C 0.016368499115514534 -0.5085546854795414 -0.4560407527777094
C 0.06590553904632736 0.9051709667677307 0.08928157416215865
O 0.28361999013695616 -1.4843905855860577 0.540868153868937
H -0.9812723929199396 -0.7339515533485418 -0.8300692188997443
H 0.711386447443331 -0.6152900916596865 -1.2934666543837225
H -0.28053104287099784 1.6121785254113745 -0.6621216290446061
H -0.5659003913755973 1.0086650699703612 0.9715271086571596
H 1.0826016847981508 1.1736113490399833 0.37270820959159845
H -0.33300641807887615 -2.210231473047691 0.42845428797516194
