9
molecule
C 0.018808011786133325 -0.44983736953401243 -0.4108293425560269
C 0.07892920163992154 0.9728955754688214 0.1650495660031094
O 0.3974957467619483 -1.4446953250330683 0.55366949013279
H -0.9967764958685726 -0.6559388572879609 -0.7736213470623592
H 0.6925530669875878 -0.5258402409308829 -1.2763263733541403
H 0.36982179430588724 0.9441553566586771 1.229084254082506
H 0.8117847121741774 1.6027632111767718 -0.37662403353483886
H -0.9080137977204727 1.4698297280811634 0.08773529366406013
H -0.3849532536511326 -2.020361795758865 0.6719521795994484
