9
molecule
C -0.1373427947660709 -0.5305001679668859 -0.43385857839113634
C -0.08687462417734829 0.9054973601931081 0.12708888747483998
O 0.16953163096815502 -1.5441783422954185 0.5592419337934326
H -1.1443657153935647 -0.7462076955975477 -0.8406256669321479
H 0.5736324922152277 -0.6336267093935157 -1.2785579689267093
H -1.1052344964230172 1.4080072698898476 0.06881062130027549
H 0.22780101792182303 0.8949226425031613 1.2209892990253701
H 0.6641026816718381 1.5444668431150699 -0.4387513154915541
H 0.4962075742362854 -1.0476979588240871 1.3557548905004944
