9
molecule
C -0.14343085845992806 -0.530606936956917 -0.4316790894460819
C -0.08819982088693792 0.9040483376334522 0.12793493474021997
O 0.19355034748460465 -1.540848349050371 0.5509356285573057
H -1.1564814513071064 -0.7518708958743804 -0.8135728915489483
H 0.5462983963967355 -0.6286686671731353 -1.2914451964909137
H -1.0876786422009965 1.4217149976554442 0.028682053973181562
H 0.1787959333768916 0.8924594713969733 1.2270249548874728
H 0.6905793400560998 1.5266822655118264 -0.4034489532552379
H 0.5228302311784028 -1.0432011699259047 1.345979354224782
