9
molecule
C -0.14358898565452352 -0.5310806520468832 -0.4321779428281439
C -0.08832263469359787 0.9048331379436934 0.1279339088330241
O 0.19399944158601495 -1.5425535719597367 0.5525518235569868
H -1.1583952107847018 -0.752852610717634 -0.8147875562394522
H 0.547482330159405 -0.6295551091017022 -1.293377384672974
H -1.093740478638708 1.4240001235891313 0.02782397939240088
H 0.1804525808510889 0.8911143529004273 1.2328743305884649
H 0.6949940310773607 1.5296477239874013 -0.4070669293701902
H 0.5233857465237516 -1.043841613018325 1.3466356738337542
