9
molecule
C -0.15624782547590546 -0.5333942073748592 -0.44117105588976546
C -0.06920501203696508 0.9136141596045685 0.07824974654506746
O 0.29933137411174054 -1.516587338130201 0.512393440001908
H -1.1939477925554265 -0.7812995110259242 -0.7299673789661136
H 0.46121389050558714 -0.6525530023678637 -1.3476305901053045
H -1.0804687656710505 1.402998787537323 0.10807717974345477
H 0.3441204869446454 0.9352496262725833 1.1248336580520315
H 0.6042332665410263 1.5467271617698708 -0.5591522537565101
H 0.34717713142260276 -1.0761416077285133 1.3777845812177416
