9
molecule
C 0.019563513897461915 -0.4507110522162597 -0.41226237648325076
C 0.07892490282690828 0.9750981685684241 0.1659594049981975
O 0.39921177457064866 -1.448810266292505 0.5564238920492689
H -1.0016082578845529 -0.6581455534361345 -0.7760366351047963
H 0.6965170202030101 -0.5273950627429874 -1.283056599367746
H 0.3734561016469111 0.9401933345476976 1.2440234930575744
H 0.8231484562665958 1.6101712059124418 -0.3852266890012387
H -0.9231170550082433 1.4757255949167076 0.0852413173930947
H -0.3864551132917739 -2.0231656172724857 0.6749998440124695
