9
molecule
C 0.011110795056823962 -0.4489904482426195 -0.4101378985137841
C 0.07979722649735979 0.9743158387160906 0.1653898750058571
O 0.41735922699472017 -1.4442493953209303 0.5455767651847553
H -1.0146752196901236 -0.6588621082097547 -0.7465026135940686
H 0.6634888703147265 -0.5211400941638704 -1.294761571930757
H 0.32818107738531554 0.9411107425116066 1.2446713692619076
H 0.8487245715877495 1.590489984945769 -0.35115140429187813
H -0.8986260049026749 1.4902254793670435 0.04646426611241107
H -0.3568316551064502 -2.0313264499575507 0.6670185433826702
