9
molecule
C -0.15624816979295017 -0.5342772421466703 -0.4417842594780901
C -0.06914146471362619 0.9144432548484838 0.07827819773240725
O 0.30086121431025914 -1.5195209308972222 0.5144387142412088
H -1.1969572991207524 -0.7826565012634238 -0.7310897254250494
H 0.4627232660485242 -0.6533367499550553 -1.350758548878626
H -1.088505103072204 1.4059923568315345 0.1076722551198478
H 0.3471060695268906 0.9339123247918316 1.1324449815138136
H 0.6095487098968347 1.550482689621365 -0.5645933215204324
H 0.34679367362947233 -1.0764323274764485 1.378822819615847
