9
molecule
C -0.15715870406008775 -0.47901164459001944 -0.38012004261837234
C -0.10762166412927501 0.9347140076572513 0.16520228432149636
O 0.11009278696135505 -1.4548475446965345 0.616788864028273
H -1.1547995960955408 -0.7044085124590197 -0.7541485087404063
H 0.5378592442677275 -0.5857470507701641 -1.217545944224384
H 0.896344449237467 1.3429318454958268 0.06572863383624011
H -0.7957272118548939 1.5876534838772214 -0.3718524073377577
H -0.38400629870000036 0.9515065879741373 1.218478835048535
H -0.5143841845073319 -1.3346565642615067 1.3346277309007737
