9
molecule
C -0.1371975519123949 -0.5298538428902589 -0.4331981418970359
C -0.08679816404806677 0.9044617906386808 0.12714173327491066
O 0.16874051254440595 -1.5418485382158973 0.5572282230705633
H -1.1418767912949257 -0.7448513242091785 -0.8390922061341131
H 0.5720608228605907 -0.6325474525698601 -1.2758782320934476
H -1.0972427251214174 1.4049122473872744 0.07001975567687115
H 0.22564200931892336 0.8966570681928545 1.2132202800975034
H 0.6581481458874505 1.540487668068741 -0.43393823604396026
H 0.49598597153464896 -1.0467307338679666 1.354587735324176
