9
molecule
C -0.15341478058514801 -0.4783749464478455 -0.35159860458655345
C -0.13408024012336456 0.9833941294764574 0.13881557222382293
O 0.10034521932516567 -1.4015841078808486 0.735764988218777
H -1.1404181959791009 -0.7246831937904514 -0.7912112661039199
H 0.6006621285674366 -0.6045367472172268 -1.1563339147175964
H -1.151928289161457 1.457391802360637 0.0007991689997584941
H 0.13275146915039546 0.9967964606651856 1.2344597858302848
H 0.6300070247002871 1.5893716898067958 -0.43386664835180366
H 0.9361046297055462 -1.9150997613518819 0.45572706957000336
