9
molecule
C 0.012320887585245712 -0.4502098363350439 -0.41291728864396027
C 0.07980855322579174 0.9801728647232193 0.16700426044441588
O 0.42033240090000257 -1.4520746945195906 0.55284372088043
H -1.0253623036918382 -0.6638633704187783 -0.7508505184718548
H 0.6719253471675243 -0.5258625959661349 -1.3087990561161083
H 0.33722975857944504 0.9331141768217224 1.2769171677827629
H 0.8735815509367225 1.6078682458124014 -0.37099003445756845
H -0.9322288570849564 1.5047818013144612 0.04157840057686832
H -0.359061807444172 -2.042332289603371 0.6718330125856519
