9
molecule
C -0.14589297657279082 -0.4764489723864883 -0.3534264083916338
C -0.13518944425125523 0.9839994235204154 0.13894493234116334
O 0.07848508801249682 -1.4027103432602859 0.7381827909235505
H -1.1210795584511641 -0.7187414148468577 -0.8200053237462478
H 0.6291699250822571 -0.6027281092830684 -1.1374301041674755
H -1.1644302179990742 1.4410504989516295 0.041318421518184004
H 0.17411595119289705 1.0020757746322821 1.2222709247713115
H 0.5949014378629788 1.6017467592477175 -0.46275222487194634
H 0.9105019799568832 -1.9256686179709328 0.46564425455973274
