9
molecule
C -0.15626565181886715 -0.5351201338945204 -0.44228811000303353
C -0.06911620371475913 0.9149194026343449 0.07823337470444847
O 0.302062836381158 -1.5216082186203967 0.5159835649706116
H -1.1992032705591955 -0.7835616409467242 -0.7318454817604729
H 0.46386691103285327 -0.6538061075947542 -1.3530703312517525
H -1.0943633506934822 1.4082063481943616 0.10738310321785549
H 0.34930743191570346 0.9329855013717092 1.1380270206683605
H 0.6134364839304355 1.5532647989727995 -0.5685634946187745
H 0.3464371696933893 -1.0766782342903911 1.3795813521574931
