9
molecule
C -0.148189962342906 -0.5259449780303066 -0.4330972594687473
C -0.06542796694140267 0.9167433500888782 0.07482141696702298
O 0.35306545446893994 -1.4829617430379958 0.494051674237426
H -1.1778376469825216 -0.785730586294493 -0.6857888296351158
H 0.4384599067639606 -0.6423610077031908 -1.3443261244833404
H -1.0447816090524105 1.392563167532541 0.09987721824985256
H 0.3355326399467781 0.9527520095933532 1.088567649332651
H 0.5849303235189754 1.5328251666893702 -0.544514140356118
H 0.27364865906059466 -1.1211652065565894 1.3774549501508169
