9
molecule
C 0.020515397533715077 -0.45140871267454663 -0.41454346081985965
C 0.07889437244326339 0.9779789570508537 0.16696566906433197
O 0.4014661437538579 -1.4533365402765825 0.5592237216174758
H -1.007118570083078 -0.6613580649504697 -0.7792077542375472
H 0.7013245757153667 -0.5295950250105604 -1.2917624262535723
H 0.3777070917036172 0.9346453129797215 1.2621489138490924
H 0.8372580576015384 1.6196169725135152 -0.3953440960728658
H -0.9417231431536425 1.4835864103252254 0.08247732900181287
H -0.3886918165910386 -2.027180072906523 0.6800787164285651
