9
molecule
C -0.15023483017902495 -0.5316182173034464 -0.44326996539837893
C -0.06703998501639936 0.9113292166755417 0.07848971683947702
O 0.2709322774276255 -1.513750286986415 0.5180901050446445
H -1.177455448554642 -0.7712799980734671 -0.7568445583053796
H 0.48649526207682126 -0.6543113373773771 -1.3301782873809154
H -1.0705584508450288 1.3804636042194536 0.15283390630617275
H 0.38503703327940425 0.9389942929979963 1.0941244245705608
H 0.5605469166753478 1.5518255829828262 -0.5751837163181123
H 0.32548594394747277 -1.0710906348430858 1.3816225010598486
