9
molecule
C -0.13740358746046394 -0.5310071810446946 -0.4342065501127876
C -0.08688645021622525 0.9058342418056102 0.12709832270427254
O 0.16990067497632244 -1.545484544522237 0.5602605859579931
H -1.1457688457615152 -0.7467247171551912 -0.8413713567414599
H 0.5745496476684069 -0.6339864655263827 -1.2799307785479863
H -1.1090988754843272 1.4094561734877367 0.06822234420081062
H 0.22885990138748702 0.894132085676388 1.2248183551216107
H 0.6669877893385467 1.5463407951165393 -0.4410877888354757
H 0.49631539203903474 -1.0478788753170674 1.3562895342598493
