9
molecule
C -0.1431243102202818 -0.5293526603082472 -0.43073466945670646
C -0.08799641099333273 0.9028264857028676 0.12799182697606912
O 0.19265929601200937 -1.5371496171421835 0.5477917197504725
H -1.1525356937496363 -0.7501199987955784 -0.8112136828476326
H 0.5438095612686196 -0.6271784479002558 -1.2875020131183381
H -1.0756567534572374 1.4171848614369074 0.030392588198060913
H 0.17546264724807162 0.8949866615567472 1.2152904039977743
H 0.6818364920891187 1.5208356004405754 -0.396266493863473
H 0.5218019571455972 -1.0423292890784435 1.3446629012930187
