9
molecule
C -0.13730819816347292 -0.5304135962610315 -0.4336934582026804
C -0.08684483590960775 0.9051917187358492 0.12711448034302125
O 0.16933761877675024 -1.5436520919182173 0.5587750855641064
H -1.143796797179884 -0.7458142248683103 -0.8402381439227223
H 0.5732907165248099 -0.6332956684506892 -1.2779107040942037
H -1.1032040442015716 1.4072100898972166 0.06911509158293579
H 0.22725866499280623 0.8953802475736832 1.2190488941231357
H 0.6625876759325421 1.5434380360410997 -0.43753368523371994
H 0.4961380998523243 -1.0473603438138703 1.3554142394889956
