9
molecule
C -0.1561728042309744 -0.5321641970336194 -0.4403523436862661
C -0.0692156160338567 0.9122615592949583 0.07835127327486352
O 0.2971771802831773 -1.5120391940965363 0.509332491396435
H -1.1895579467061876 -0.7790739321183263 -0.7280844343980437
H 0.45899448710319796 -0.6512288274003434 -1.3431355171736477
H -1.0683452859989238 1.3980993756600955 0.10868802072520545
H 0.3396633145188069 0.9372048960241021 1.1133807917424068
H 0.5962540935042323 1.5408435044173812 -0.5508877841593716
H 0.3474492973556096 -1.0752779964651806 1.3761035206567203
