9
molecule
C 0.0006626903547970909 -0.5171816651035478 -0.4067599531384048
C 0.11518437811690262 0.9440574532859433 0.034865893518833596
O 0.3492637728277512 -1.4420327294290929 0.6157348036089474
H -1.0066879657854568 -0.7296229912562473 -0.77211542399224
H 0.6846082647288589 -0.7232705941429279 -1.2277682328465214
H -0.8230375566526228 1.4837843957462697 -0.09203187858317402
H 0.39153300505030186 0.9997692548147179 1.0872995283912548
H 0.8798842515835327 1.4784165607173552 -0.5268510469088358
H -0.24502809750365503 -1.3074319988434104 1.3566822601897923
