9
molecule
C -0.1254087170221857 -0.14570506782183015 -0.5602928419337384
C -0.07587167709137321 1.2680205844254406 -0.014970514993869588
O 0.14184277399925727 -1.1215409679283457 0.4366160647129075
H -1.123049609057639 -0.3711019356908303 -0.9343213080557726
H 0.5696092313056299 -0.2524404740019748 -1.3977187435397505
H -0.07884654221736731 1.2533807649515707 1.0732673234047239
H 0.8242221276317238 1.7859700456991119 -0.3463410696842537
H -0.9364824871290917 1.8425584154758472 -0.35455447166740955
H -0.651912735769065 -1.6423332266397463 0.5724012349051678
