9
molecule
C 0.01997852139818587 -0.4510631079450342 -0.4131141682523836
C 0.078903610453998 0.9762455108543813 0.16639084752385588
O 0.40011931866287087 -1.4506717788789945 0.5576704769675477
H -1.0039535264974462 -0.6593671411341988 -0.7772963379089288
H 0.6984785250745615 -0.5282378395964576 -1.286519797470061
H 0.37520792926224633 0.9380220143733742 1.2513783368042288
H 0.8288129476410971 1.6139148122226645 -0.3893725612264331
H -0.9306010174492784 1.478769080855761 0.08408026972144479
H -0.3873087004405311 -2.024655456364913 0.6768368396141486
