9
molecule
C -0.13764596570716234 -0.5320889864217424 -0.43549838924069434
C -0.08702439918649055 0.907832312212166 0.12692575514171534
O 0.17144442690487352 -1.549907392720469 0.564019856956489
H -1.1507244168311115 -0.7494420747833053 -0.8443478185958324
H 0.5776045244564553 -0.636107512427636 -1.2852083976361448
H -1.1247996470232018 1.4154804614122127 0.06588465628364568
H 0.2330488967943332 0.8906360563428237 1.2398871074211917
H 0.6787416526594252 1.5541853833590027 -0.4505243179341614
H 0.4968021241982174 -1.0499136273376581 1.358956470529968
