9
molecule
C -0.15624951338296547 -0.534454353236011 -0.44194841203877056
C -0.06913240156446471 0.9146885993301221 0.07828607961226369
O 0.3012401221946469 -1.5202125691723576 0.5149423991848335
H -1.1976742805375138 -0.7830319470672257 -0.7313577868667269
H 0.4630803636126575 -0.6535611110845219 -1.351529758329359
H -1.090523181866096 1.4067422848101423 0.10757004415461832
H 0.34786163783006574 0.933565911091192 1.1343493480672355
H 0.6108885598434876 1.5514261126548186 -0.565964104235181
H 0.34668317250803166 -1.076557838669915 1.3790867252626866
