9
molecule
C -0.13706398859809465 -0.5291738377838865 -0.43268002985561527
C -0.08676024520709057 0.9038816951137779 0.12717571131133867
O 0.1681991028590482 -1.539945943794173 0.5556809754250311
H -1.1399267203502064 -0.7440013794281015 -0.8379392063705682
H 0.5707716905778032 -0.6318865643474204 -1.2738551151752908
H -1.0912953389870428 1.402632272880146 0.0709190295665687
H 0.22402135882218355 0.8978932703841596 1.2073505389143973
H 0.653735192630465 1.537592381417969 -0.43036071297288414
H 0.4957845323145207 -1.0463022757962017 1.3537988253484519
