9
molecule
C 0.017219204704421204 -0.5076932677263741 -0.45535998097552766
C 0.06675624463523376 0.9060323845208968 0.08996234596434105
O 0.2844706957258635 -1.4835291678328888 0.5415489256711178
H -0.980421687331032 -0.7330901355953745 -0.8293884470975617
H 0.7122371530322362 -0.6144286739065188 -1.2927858825815393
H -0.7851246604039407 1.4797748808877471 -0.2700421519958343
H 0.04299050753360781 0.9081574612539169 1.1797685764655688
H 0.9796366364193672 1.4091584866548912 -0.22559345724554958
H -0.24066427645499647 -2.2632497173197583 0.351867286691658
