9
molecule
C -0.13697645696144367 -0.5283947856750077 -0.43203049722190534
C -0.0866511955348855 0.9030358343072967 0.12725392138524866
O 0.16745259259549067 -1.5374940243659754 0.5536129772724826
H -1.1373464145867713 -0.7427486372467863 -0.836355717772168
H 0.5691441195509813 -0.6308982470983258 -1.2711726789524187
H -1.0833186662347516 1.3995297690296549 0.0721006039645345
H 0.22184192776159897 0.8996501862818562 1.1994954924890324
H 0.647780113521691 1.5336526565365218 -0.4255535882868256
H 0.4955441208300428 -1.0456394160544682 1.3527382873219869
