9
molecule
C 0.020816658138681048 -0.45154539989862186 -0.4152619960513173
C 0.07887011540701648 0.9788681128042515 0.1672515279540615
O 0.402101782629911 -1.4546096330970815 0.5600246283411338
H -1.0086804045181847 -0.6623404450301994 -0.7800841300847422
H 0.7027560595340887 -0.5302589522696527 -1.2943418717275572
H 0.37895328293275155 0.9330278404717759 1.2674448933047588
H 0.8414146705159435 1.6223834257314877 -0.39831762534464676
H -0.9472132010205326 1.4860073225242028 0.0816928864992869
H -0.3893894698623148 -2.028586295229286 0.681620075812168
