9
molecule
C -0.13702872608427472 -0.5287893479161863 -0.4323804595847574
C -0.0867143047286439 0.9034427213259428 0.12721107942706977
O 0.16783438339076645 -1.538723060106722 0.554671271078885
H -1.138632846911651 -0.7433742244956274 -0.8371554325633893
H 0.5699510610348596 -0.6313875241121074 -1.2725208022232828
H -1.0873102854550747 1.401083185529331 0.07151766438670944
H 0.22294075315318246 0.8987527379919462 1.2034330240768192
H 0.6507709908841108 1.5356258555768731 -0.4279536173791494
H 0.4956568312627603 -1.0459388714710525 1.3532666825660655
