9
molecule
C -0.13680537928957848 -0.5278670181725484 -0.43108671407332694
C -0.08644313057067537 0.9010215215920827 0.12777651852933508
O 0.16648717930487927 -1.5337890710618562 0.5503248650758351
H -1.133845069903235 -0.7398824806399535 -0.83333056339126
H 0.566797671677972 -0.6285983360023126 -1.2668632911557454
H -1.0690012269718137 1.3931033732250917 0.07483987450467142
H 0.21864274989116214 0.9032017590343279 1.1857220642723008
H 0.6364680854160897 1.5263748473407472 -0.4172308880880339
H 0.4952046978523002 -1.042842353911465 1.349927478399283
