9
molecule
C -0.15399193227361394 -0.47888059586254345 -0.35211364393083755
C -0.1339676128457949 0.9845558303064776 0.1392402268458832
O 0.10062644307068136 -1.4034058515245627 0.7374119868486775
H -1.143749141292954 -0.7261853115327233 -0.7931860792319972
H 0.6025217345273595 -0.6056040853904062 -1.1586147366238968
H -1.1592607802846013 1.45993356171866 -0.00017839731937413505
H 0.13493578153232128 0.9953040378731195 1.241648971977148
H 0.6353966948972246 1.593223874903846 -0.4384894941123704
H 0.9375196082643172 -1.9162664667430152 0.456837948808883
