9
molecule
C -0.15369470012760814 -0.47862656799023134 -0.35184423743281806
C -0.1340363326368728 0.9839817814689329 0.1389914466067758
O 0.10050231396163634 -1.4025119312926613 0.7365749198023449
H -1.1420777599727052 -0.7254338969776157 -0.7921961029038814
H 0.6015815263417214 -0.6050665505469229 -1.1574683447807959
H -1.1556030199887333 1.4586725364929392 0.0003100445557329759
H 0.13385160472733565 0.9960445465359616 1.2380734100920816
H 0.6327056402468612 1.5913012844204473 -0.43617687050578813
H 0.936800612486524 -1.9156860432313594 0.45629220327288816
