9
molecule
C -0.01354840827518141 -0.5307417899798408 -0.45670003326031533
C 0.05261286585774328 0.9020987125099897 0.07856439758424491
O 0.2880176463091978 -1.5058739302144295 0.5381966904709686
H -0.9982475603774059 -0.7407594158993739 -0.8664626407127075
H 0.7046523790169409 -0.6443913600427804 -1.2737117429060405
H -0.9020661138385055 1.4014089117097517 -0.06065594274147541
H 0.2780949812031699 0.9002386002331767 1.1466937214542912
H 0.8239418788218569 1.4849784898316543 -0.41856980197019295
H -0.1392074468576288 -1.2099256013329431 1.3465146823516494
