9
molecule
C 0.011435307897489033 -0.4495273577487773 -0.4108397992017465
C 0.07981664141561184 0.9758375144066966 0.16585265612002226
O 0.41819020184084654 -1.4465599567918572 0.5478513267093351
H -1.0179281450492024 -0.6601228082251978 -0.7478193549557873
H 0.6658620226740751 -0.5223425255591508 -1.2987223736202018
H 0.33073359234395105 0.9388061973191064 1.2538046789910262
H 0.8556877868708017 1.5952686709661177 -0.3567252337581246
H -0.9080261280107657 1.4940665784736131 0.04500743349954592
H -0.35723763836362954 -2.033846835727637 0.6681729450361821
