9
molecule
C -0.15858660174957756 -0.47787072287290067 -0.347598109873583
C -0.1332718715495606 0.9791264849671412 0.13748704577364612
O 0.12139779594100644 -1.3934615758196711 0.7269840293483515
H -1.147019750132281 -0.7249444504640465 -0.7546003891199287
H 0.5658988008995781 -0.6019728062503664 -1.1655456937555888
H -1.1118288171301114 1.4634282880754055 -0.03681067383657725
H 0.0826045474184659 0.998590507761839 1.2196784035190462
H 0.6447460087866173 1.561955768844545 -0.3877266486032687
H 0.9555171121669699 -1.9020724826679472 0.4404906773743117
