9
molecule
C -0.15169791696122195 -0.47633854030502754 -0.35000596546391294
C -0.1343224217880706 0.9800335276716863 0.1376459856787331
O 0.0994038286894244 -1.395559539407788 0.7299225098002539
H -1.1296803736582717 -0.7198811944882729 -0.7847690750688331
H 0.5945978908819036 -0.6012542197262519 -1.1484507276462936
H -1.1279076235081993 1.448761909697807 0.003915045290479965
H 0.12559493625955648 1.0020224703547314 1.2109546416177477
H 0.6123142154177168 1.5766397474995593 -0.41875240180382406
H 0.9317202607113313 -1.911747716818815 0.45209400738013206
