9
molecule
C -0.16227533448954903 -0.5344654835885393 -0.43858551546327407
C -0.07136211113012811 0.9148256056609217 0.07832485838616436
O 0.325576670889232 -1.5166286936258062 0.5048253882663087
H -1.2079224490338634 -0.7892209571572382 -0.7018390438109089
H 0.4345427925729385 -0.6497568763116474 -1.3622171472456726
H -1.0824429367311335 1.4214981822946389 0.06360062493839787
H 0.30019154645295454 0.9327818374480983 1.1480872894321588
H 0.6425870911776282 1.537392652072541 -0.5374415801655686
H 0.3704551594415133 -1.0797198305079645 1.372318002618645
