9
molecule
C -0.16212249876141566 -0.5331180449619746 -0.43770872493258367
C -0.0713301349160311 0.913618792530628 0.07827725629418367
O 0.3239934222794776 -1.5119099225567725 0.5016126186866399
H -1.2032478394622506 -0.7874150517400358 -0.6998623367555128
H 0.4322037752960299 -0.648522125563683 -1.3576994374034101
H -1.07028869622144 1.4170361658860575 0.06419963976349884
H 0.29576677974736426 0.9347267856679076 1.1366295336043886
H 0.6347055127323543 1.5316848978280033 -0.52930726840019
H 0.3696311038915828 -1.079405913028268 1.3709523919549802
