9
molecule
C 0.006430336053225644 -0.40781907338598955 -0.3542463381862691
C 0.05596737598403835 1.0059065788612815 0.1910759887535997
O 0.2736818270746676 -1.3836549734925039 0.6426625684603762
H -0.9912105559822275 -0.6332159412549898 -0.7282748043083032
H 0.7014482843810405 -0.514554479566134 -1.1916722397922808
H 0.7392732980492702 1.0609245977702648 1.0363870566600244
H 0.3969883219325192 1.7088421934314106 -0.5690774052687633
H -0.9305751803357996 1.3255851461602428 0.5236437975859343
H 0.47399585659753884 -2.2147976513496546 0.2081673014134417
