9
molecule
C 0.004133386765080337 -0.4929442408097718 -0.45444208184893325
C 0.043231030230651786 0.9113822942694021 0.1575636524958301
O 0.34016982873772267 -1.5295915635562591 0.460572868637039
H -0.9788804628387742 -0.684993647199955 -0.8906948497540413
H 0.7301985400712255 -0.5743824415514203 -1.2609278283261094
H -0.9013334775150524 1.4377605723007767 0.02355215217349209
H 0.2493635881808835 0.8654678704338453 1.2259500382495292
H 0.8229931475559074 1.5223051500618834 -0.29472121732798945
H -0.3985998633503841 -1.662672540947554 1.056497408536501
