9
molecule
C -0.006595661929032873 -0.5161510495703787 -0.45074331209706964
C 0.06437972389917143 0.9176067868959671 0.0891479029898567
O 0.3200096935715063 -1.4980435160685084 0.5356454639322946
H -1.004520213213721 -0.7272066360577877 -0.828803251209843
H 0.6864901556108787 -0.6240645837216745 -1.2897517377707581
H 0.30539152149633575 0.9064371747630302 1.1510139261057273
H 0.827591131412523 1.499814612499516 -0.42157795718717045
H -0.8936268257577845 1.4117853949752994 -0.040895814614461026
H -0.4737546913221711 -1.6145206180583398 1.0641653452029771
