9
molecule
C -0.14578544269015783 -0.4763263085340362 -0.3533082334218703
C -0.13521249915891848 0.9837037499993941 0.13884237095497937
O 0.07840243314677654 -1.4022526726837914 0.7377126967345075
H -1.1202744134199605 -0.7183646791121777 -0.8195430849895098
H 0.6286546723778204 -0.6025082361592966 -1.136875713795142
H -1.1625929686867549 1.440415349698213 0.041612560920358393
H 0.17361700894325874 1.0024033704711635 1.2204650531595376
H 0.5935405705615671 1.6007839319273145 -0.46159400937548617
H 0.910233285769566 -1.9252795907884712 0.46543578235250316
