9
molecule
C -0.14665427513241017 -0.47723504373992875 -0.3542388157967069
C -0.1350501530967027 0.986165264140003 0.1396644685043639
O 0.07911593436963753 -1.4058639341890586 0.741263555758362
H -1.126724900413303 -0.7214234798853262 -0.8232513221627245
H 0.6327098543078928 -0.6043833946285876 -1.1412767784115092
H -1.1772210791133126 1.4454915972884579 0.039295097112423905
H 0.17759240259373793 0.9997710127812751 1.2348371296946887
H 0.6043873527412608 1.6085796565619979 -0.47079472398373695
H 0.9124238573987603 -1.928526101000265 0.4672475498160601
