9
molecule
C 0.011496499785136912 -0.4495564965368276 -0.41098811460065016
C 0.07981127534333524 0.9761754658697019 0.16594554536404713
O 0.41835287874810206 -1.44698256588004 0.5482352604740879
H -1.01849919015352 -0.660407594680207 -0.7480512007646873
H 0.6663182069663923 -0.5226245948489419 -1.2994919291656455
H 0.3312521017175409 0.9383412444102281 1.2556430682710813
H 0.8571077455959769 1.5962560491984958 -0.3578664459391546
H -0.9099343025079807 1.494870290980527 0.04471671343583844
H -0.35737061551159155 -2.034491126344966 0.6684423954989919
