9
molecule
C -0.14374670961257147 -0.531760407556775 -0.43266297918871716
C -0.08840922465449286 0.9053976755330522 0.12792736169119184
O 0.19442955060015615 -1.5444100016527182 0.5541087027778661
H -1.160455034078575 -0.7536748724915829 -0.8159576454002896
H 0.5487968058046973 -0.630234769781269 -1.2953526718647876
H -1.0996190435878492 1.4262033915654135 0.02699946248648978
H 0.1820676873720234 0.8898746099114079 1.2386065034387368
H 0.6992889354211665 1.5325155336270375 -0.4105864346017668
H 0.5239170396951796 -1.0441967783078876 1.347326753437081
