9
molecule
C -0.15247045405685555 -0.477365745566957 -0.3507709157620572
C -0.1342172606748586 0.9815297706171857 0.1381195730945492
O 0.09982612561609153 -1.398306973282418 0.7326759819231949
H -1.1346001222981734 -0.7221294214433829 -0.7877648824968246
H 0.597365208937627 -0.6027924846565517 -1.152237431029242
H -1.1390566951351209 1.4528987326141638 0.002535164623870899
H 0.12892473824283796 0.9994184063551435 1.2218289645190081
H 0.6205119751473576 1.58261915853865 -0.42571785104559645
H 0.9337421865553409 -1.9131955257576323 0.45388641994741047
