9
molecule
C -0.165350958531134 -0.4793020296398666 -0.34514838237566625
C -0.13225816496655668 0.9779898829691407 0.13720009429641608
O 0.14331737135524208 -1.3908441197896968 0.7236705174847679
H -1.1635516921338172 -0.729702615399547 -0.7240353121974502
H 0.5368112536215122 -0.6025183982468474 -1.1820982410935408
H -1.0938761901311405 1.4774841583262854 -0.07704393274660574
H 0.03922740582322412 0.9954757305063888 1.2265005275932068
H 0.6756164382159835 1.5463889981325591 -0.355560088486674
H 0.9789557036176141 -1.892089939981121 0.4286779113694563
