9
molecule
C -0.13746687965163415 -0.5312288213407205 -0.43448531771820437
C -0.08694226561833897 0.9063894483948636 0.12699733273887523
O 0.17029925924804198 -1.5465594911957312 0.5611426683650789
H -1.146922047523894 -0.7474723287016338 -0.8421150550214929
H 0.5752523588585952 -0.6346045317004889 -1.2812412292698465
H -1.1130909774306323 1.4110506753053473 0.0676412955642221
H 0.22991220667581255 0.8932469146569407 1.228612310261452
H 0.6699718801740931 1.5483940152636766 -0.4434778154555759
H 0.4964399247004234 -1.0485361521523187 1.3570190621521012
