9
molecule
C -0.14354199288444888 -0.5309731570865037 -0.4320161327136954
C -0.08827037520004906 0.9045268849088351 0.12793812683204334
O 0.1938493573854193 -1.5420318230282932 0.5520096928490068
H -1.1577896029782773 -0.752487253998793 -0.8143727531944541
H 0.5471165318987598 -0.6292107890841845 -1.292741522559252
H -1.091687804205239 1.4232146171123514 0.028109729268085457
H 0.17989980850077447 0.8915858918026348 1.2309188391359138
H 0.6935006519366701 1.5286375479335415 -0.4058449303818227
H 0.5231891164872426 -1.043551058309575 1.3464091552581907
