9
molecule
C -0.013446030491234036 -0.5307450937266812 -0.4567023106769355
C 0.05264849094077608 0.9020913611295156 0.0785846270336518
O 0.28778682977968695 -1.505885586190082 0.5382871714348276
H -0.9980414084352203 -0.7407091162740865 -0.8667406354708452
H 0.704970557129636 -0.6444421398271089 -1.2735159604435258
H -0.9022368541527886 1.401174987079674 -0.06003005453628941
H 0.2787835304363898 0.900237235352479 1.1465742226185913
H 0.8235274031561152 1.4851882109234331 -0.4189914596428444
H -0.1395026025024966 -1.2098236718972488 1.3465295541717868
