9
molecule
C -0.14337026586391524 -0.5303290186052996 -0.43150869144933324
C -0.08816846059114783 0.9039014706712135 0.1279308736708377
O 0.19340971475879262 -1.540171958716928 0.550392553046687
H -1.155781113339016 -0.7516277824270853 -0.813192295551346
H 0.5458364541284911 -0.6284815311861317 -1.2907658231972017
H -1.085731896358788 1.4209842533743546 0.028959286872694723
H 0.1782529936857044 0.8928481255809363 1.2251009364074752
H 0.689152045518786 1.525725084135751 -0.40227806560559454
H 0.52266291940117 -1.0431404740764876 1.3457723107895283
