9
molecule
C 0.013961446267042562 -0.48056953453950213 -0.420561493454879
C 0.08556864368359854 0.9536402076588306 0.117382472608989
O 0.34648298835632835 -1.4619327109706768 0.564211258309463
H -0.9852870902759427 -0.6922451025134234 -0.796101039275688
H 0.7045261774862137 -0.5880503425002336 -1.2612045047152656
H -0.8694184095139862 1.4513578801645866 -0.022443075857931555
H 0.31863452141297877 0.9425162863189214 1.1817956337364253
H 0.8541724274332365 1.5336653867952985 -0.3883112146074806
H -0.4384542984118904 -1.5626190663035042 1.1091608988121038
