9
molecule
C -0.03918006107149782 -0.5112824089002896 -0.47023932052186146
C 0.041263857624661233 0.9014587142997683 0.11589152677386362
O 0.26852615034321536 -1.5359286448179508 0.46689978172726937
H -1.0261211792279796 -0.6875642695726821 -0.9043341767752365
H 0.6851048079902772 -0.6313580541544012 -1.2735537170087339
H 0.2701482669920024 0.8638813444181012 1.180333137380369
H 0.8234022181393601 1.4906386741669013 -0.3606434488847144
H -0.8952254858777392 1.4452344392541348 -0.0038713751193511286
H -0.40666445752687624 -1.5405491350517566 1.1480913450716976
