9
molecule
C 0.01965176640694588 -0.4507456951511224 -0.4124903548753345
C 0.07892071084169636 0.9753975906500411 0.16607325319501065
O 0.39943685922534683 -1.449267817411404 0.5566932733035532
H -1.0021470101525358 -0.6584715818001449 -0.7763543266965283
H 0.6969964654281763 -0.5276347172145962 -1.283926697019687
H 0.37389401968369806 0.9396197974830197 1.2458748729639417
H 0.8245895226820287 1.611134119339162 -0.3862701263121571
H -0.9250159216490924 1.4765014787216655 0.08494970634141698
H -0.38668603275977564 -2.0235736241165037 0.6755130206848744
