9
molecule
C 0.020350281952916723 -0.45136487797113256 -0.4140343042207311
C 0.07893770916484086 0.9773744631562589 0.16679716976108985
O 0.40103974519144747 -1.4524559157868975 0.5587686021326193
H -1.0061497287565342 -0.6606558549227491 -0.7785661918230621
H 0.7004005327530051 -0.529108712999078 -1.2900082243458073
H 0.37688290332092333 0.935806084695131 1.2585769411453165
H 0.8344123163309604 1.6176745722781702 -0.39337317409154365
H -0.9380214364786142 1.4819259290587194 0.0829865922545741
H -0.38821838378185525 -2.0262441675312313 0.6788949589710813
