9
molecule
C -0.16241679525178218 -0.5355939400382762 -0.43923073824509656
C -0.07141237878847259 0.9154746635416153 0.07832110718301455
O 0.3265520604027523 -1.5196102516141314 0.5069786017166995
H -1.2110271204925165 -0.7902549865834273 -0.7031295724228122
H 0.43616087544881776 -0.6504694089701857 -1.3651556016806157
H -1.0903643774703182 1.42441661489518 0.06323329634105032
H 0.30306111601188396 0.9315335575822571 1.1555759875903295
H 0.647726140207821 1.5410836727823505 -0.5427159222089568
H 0.37109574988925165 -1.0798665738630324 1.3731824744413346
