9
molecule
C -0.14644495486331385 -0.4770363429698238 -0.3539914965495948
C -0.13506643995913137 0.9855323540037667 0.1394496257466063
O 0.07894494990863171 -1.4049575432825363 0.740374889139017
H -1.1250944709436181 -0.720659238593164 -0.8223297197051165
H 0.6316937419121635 -0.6039055653419196 -1.1401836482877976
H -1.1736083205444587 1.4442477590752076 0.03986541143317565
H 0.17660864716588495 1.000427296598318 1.2312792325715083
H 0.6016850896725965 1.6066282079181065 -0.46850734705011954
H 0.9118616466152084 -1.9277015124447128 0.4667895225215029
