9
molecule
C -0.002539782287175569 -0.5224763375768161 -0.42748258627175256
C 0.07626359346305585 0.9266088987411286 0.057239793123183634
O 0.337648432878622 -1.4622040402523755 0.5844138134860118
H -0.9981295062872176 -0.7460980834367322 -0.8169115407795167
H 0.7016844622125445 -0.694465873438397 -1.2393842655649068
H -0.8700787730240676 1.4510418398084377 -0.06894317344958809
H 0.3292019887933215 0.9502325657948067 1.1169120926608338
H 0.8421496480048085 1.4939571688677586 -0.4692462751561412
H -0.18968244541981874 -1.25975191803132 1.3595460280945943
