9
molecule
C 0.03909059567694109 -0.4722030934105813 -0.4260248027929522
C 0.08862763560775358 0.9415225588366894 0.11929752414691663
O 0.3063420866983827 -1.448038993517096 0.5708841038536935
H -0.9585502963585121 -0.6975999612795816 -0.8000532689149866
H 0.7341085440047564 -0.5789384995907257 -1.263450704398964
H -0.9166842883906261 1.3504905023252207 0.20040192430267634
H 0.5471623358794523 0.9657718913038288 1.1079353975727937
H 0.671843631268333 1.5871524594453272 -0.5357468126255326
H -0.17935281522771004 -1.213182095127188 1.363760322432047
