9
molecule
C -0.03672352960231073 -0.5070147358342241 -0.45861024168372727
C 0.044918845931028094 0.9120920124652474 0.11286271695788641
O 0.28869943663487324 -1.5216435097061423 0.4845158322017729
H -1.0306424317135 -0.6886234805572296 -0.8753649681763157
H 0.6757483742292147 -0.6321035984429211 -1.2711137865879218
H 0.2701336207437871 0.8861133695359347 1.1783561928412052
H 0.8296996948124691 1.4937502694533042 -0.36924689521715304
H -0.8913391124790823 1.4542780874445738 -0.01726913034424925
H -0.42979084867599787 -1.5918662250160374 1.1146968151165286
