9
molecule
C 0.020257565068891904 -0.45133814434686836 -0.4137658996073103
C 0.07891770744850049 0.9770804283266167 0.1667007757709415
O 0.40082088514883685 -1.4520267201296693 0.5585279439250509
H -1.0056409153242007 -0.6603130283873141 -0.7782541913245734
H 0.6999351797960938 -0.5288771451023665 -1.2891462238839915
H 0.376467535186091 0.9363777672092694 1.2567744798702993
H 0.8329998106568692 1.6167242891288216 -0.39237533194775376
H -0.9361457346953962 1.481114175254316 0.08325508731731551
H -0.3879771671671939 -2.0257889467524075 0.678328642967132
