9
molecule
C -0.13761292662201863 -0.5318897617805118 -0.43533865032214214
C -0.08701632157501067 0.907631381580561 0.12692439103913056
O 0.17124778156980416 -1.5493074333758994 0.5635201709756725
H -1.1500426261796832 -0.7491646041469362 -0.8439858201531447
H 0.577164075551865 -0.6359144910653699 -1.2845179466944938
H -1.1229051150449794 1.4147706928416324 0.06617526973356784
H 0.23253551742661646 0.8910478110301173 1.2380385227123754
H 0.6773235227788019 1.5532585887868093 -0.44937484081678875
H 0.49675428759991636 -1.049756749150317 1.3586535598074585
