9
molecule
C -0.14516181983101087 -0.47548951457059885 -0.3527334526156402
C -0.13531006132821355 0.9820235767472626 0.13830210722727904
O 0.07781106537966026 -1.3994945823987883 0.7349254594515459
H -1.1155270634458188 -0.7161235639063281 -0.8167551792253059
H 0.6255912802029278 -0.6012007656763891 -1.1334713187999532
H -1.1515090457250554 1.436480520941522 0.04336861743916322
H 0.17061336301231517 1.0044029244453083 1.2096095583874997
H 0.5853544489487962 1.594935120078164 -0.4546415979228166
H 0.9087232979855379 -1.9229593119542996 0.4641442022107286
