9
molecule
C 0.03376291243522704 -0.4321892799768142 -0.385866611747622
C 0.08329995236603964 0.9815363722704579 0.15945571519224627
O 0.30101440345666863 -1.4080251800833306 0.611042294899024
H -0.9638779796002268 -0.6575861478458147 -0.7598950778696567
H 0.728780860763043 -0.5389246861569593 -1.2232925133536348
H 1.1062537748002657 1.2527655743023205 0.41339461373194547
H -0.28759607370571044 1.6986992113032109 -0.572910686552853
H -0.529721133084724 1.0709070595140835 1.0551565460204353
H -0.31536699755317027 -1.279894273802609 1.3344829889509018
