9
molecule
C -0.1463204803278937 -0.47693454830308146 -0.35387644963949483
C -0.13509548707414168 0.9852177251289957 0.13932934136230793
O 0.0788516665012004 -1.4045022946550854 0.7399305243284565
H -1.124279072904816 -0.7202789688889999 -0.8218585375455345
H 0.6311788002595713 -0.6036630316329743 -1.1396299790525721
H -1.1717687084449013 1.4436175626917795 0.04016171238745628
H 0.17610969838497165 1.0007591567419696 1.229480557271424
H 0.6003239271478827 1.6056499208199468 -0.46734900443956895
H 0.9115800042873531 -1.9272901901551114 0.46655846366359494
