9
molecule
C -0.14331258716876388 -0.5300504329412821 -0.43132041728761844
C -0.08815421037396723 0.9037480503733673 0.12793669409760908
O 0.1932617165717364 -1.5395001153135461 0.5498436733358902
H -1.1550833505616311 -0.751376871504016 -0.8128099920928085
H 0.5453855376828275 -0.6282897421813809 -1.2900910174971665
H -1.0837768032744364 1.4202411050465855 0.029235350629660026
H 0.1777082758104856 0.8932373618352455 1.2231740731525376
H 0.6877332785118145 1.5247649007062212 -0.40111463265466174
H 0.5224994501836333 -1.0430669714607592 1.3455576425517295
