9
molecule
C -0.1531430293322738 -0.47810352618243884 -0.35133242834830547
C -0.13413053966901645 0.9828415019552418 0.13859623569212093
O 0.10021506869423713 -1.4006556571174527 0.7348619988366469
H -1.1387325508252648 -0.7239514649839822 -0.7902251165312194
H 0.5997074674348478 -0.6040351350722583 -1.1551756593832616
H -1.1482614782536205 1.456132141684985 0.001297185068844256
H 0.1316614918009057 0.997541937211781 1.2308601522168192
H 0.6273008016041166 1.5874570156812096 -0.43154069285079216
H 0.9354108078136664 -1.9145513195647397 0.4552141563766747
