9
molecule
C -0.1274285882454156 -0.5496637737101224 -0.4431115222950665
C -0.07001237864385575 0.8855266304201356 0.09311252222055103
O 0.2658742309651005 -1.5243153858271745 0.5268219093915765
H -1.1398685251550407 -0.7849533861681282 -0.7775921686829738
H 0.5293019270894642 -0.6419829896645806 -1.3140319465897246
H -1.0661247841854404 1.314934556338321 0.14515643245395402
H 0.35535074333518996 0.9072693936139333 1.1009512976646472
H 0.55003221379927 1.524064807673846 -0.532465526863505
H 0.28854304180323287 -1.0677793755458251 1.389937009746334
