9
molecule
C -0.1528603089524354 -0.47785089354835736 -0.35110408302834656
C -0.1341427002726692 0.9822867833753434 0.1384377856223097
O 0.10003850665561773 -1.3997057806108453 0.7340454007997868
H -1.1371023004335423 -0.723192662779491 -0.789236682562867
H 0.5988038738725248 -0.603506277823262 -1.154013420803651
H -1.1445883636682481 1.4548086903252888 0.0017711896739992725
H 0.130564086720051 0.9983133227779605 1.2272548878374352
H 0.6245858034923212 1.585488217181629 -0.42922565407626795
H 0.9347285087141812 -1.9139657360598237 0.45462608525815795
