9
molecule
C 0.020190862098263603 -0.45129937201142567 -0.41352387747301994
C 0.07889964595989248 0.9767799560346605 0.1666094804079554
O 0.4006046397430864 -1.4515738881303124 0.5582892708591108
H -1.0051399438428619 -0.6599714730802679 -0.7779382385815575
H 0.6994654294217333 -0.5286410135662101 -1.2882765687451547
H 0.3760504760849747 0.936958068122888 1.2549692444974343
H 0.8315862911839346 1.6157629219896708 -0.391379861755317
H -0.9342726157544676 1.4803102577463931 0.08352837594337706
H -0.3877489934712558 -2.025371628074156 0.677770367726515
