9
molecule
C 0.011878041156453455 -0.45006983039817555 -0.41167508198980995
C 0.07980550182772657 0.9777478121653319 0.16644212883683204
O 0.4192495732335732 -1.4491281574005033 0.5503980578088928
H -1.0216701913496002 -0.6617228942495346 -0.7492789053047295
H 0.6687120020406354 -0.5238519239146131 -1.3034025382125871
H 0.3337812858694295 0.9361995516653291 1.2646073539860694
H 0.8639693594273303 1.6010034187738673 -0.36340443639733166
H -0.9192079182660308 1.4988194746769694 0.043328026718059375
H -0.3579784500265989 -2.0374110381712507 0.6695851650370617
