9
molecule
C 0.011367193903331912 -0.4494366609937096 -0.41072033387443563
C 0.07983048044847268 0.9754898362935153 0.1657768377239882
O 0.41803970806639085 -1.4461401261166742 0.547421567213839
H -1.017302976115324 -0.6598537179821837 -0.7475630553147001
H 0.6653931484769935 -0.5220662151830999 -1.297941810863
H 0.33021143602528563 0.9392623570135437 1.2519797486726298
H 0.8542891629648539 1.5942835437288756 -0.3556057850126855
H -0.9061546562811801 1.4932686825399615 0.04529005792605476
H -0.3571408162952651 -2.0332294198128884 0.6679420321124346
