9
molecule
C 0.017382385432039255 -0.5673796909367738 -0.002145346212489095
C -1.2687687504690541 0.23388731415959674 -0.0002924544247037427
O 1.0990503440671753 0.3477635017477848 -0.006188466867575655
H 0.05208368856375834 -1.2156268257782459 0.8876520524765604
H 0.05168579146802691 -1.222744419786799 -0.8868701362642283
H -1.307316858043425 0.879800977627316 0.8821955441882707
H -1.3233617795690802 0.8675069715695817 -0.8905812447504147
H -2.138350518884385 -0.4313590488150159 0.012625880376243912
H 1.9175594193236793 -0.1619819406111623 -0.00035969568650155655
