9
molecule
C 0.4189377280238303 -0.5127126337227246 -0.1346122835164818
C -0.8816584043271136 0.26163678022827935 0.019230649655740395
O 1.543688961047209 0.3371131496234716 -0.2669486748500322
H 0.5473912981348819 -1.2116008284311528 0.7071287374084474
H 0.3961561260446545 -1.1112648460321903 -1.0503660460519408
H -1.0246671568289818 0.9354110065370372 -0.8309890046686683
H -1.738638268536271 -0.41834996238142685 0.07623772285138629
H -0.8724942588484385 0.8647908036144502 0.9358202939091649
H 1.6112839752902288 0.854976530564256 0.5444986052623842
