9
molecule
C 0.020545156903389532 -0.5613299299999099 7.046620231765388e-14
C -1.263214453669953 0.24357897942338785 -1.7401531604566145e-13
O 1.1041053800020482 0.35155826148047314 -9.132104794584706e-13
H 0.05397276601377999 -1.2125854328183396 0.8878862595181468
H 0.05397276601361766 -1.212585432818611 -0.8878862595185563
H -1.3080183601142867 0.8833179127802372 0.8863875265985932
H -1.3080183601143405 0.883317912780251 -0.8863875265986013
H -2.1358664901179454 -0.4178256127893279 -2.4702462297909733e-14
H 1.9217392773423858 -0.15949321064312666 1.533755761284894e-13
