9
molecule
C 0.0072 -0.5687 0.0
C -1.2853999999999997 0.24989999999999957 9.614813431917819e-17
O 1.1303999999999996 0.31469999999999976 0.0
H 0.03920000000000014 -1.1971999999999998 0.8899999999999995
H 0.03920000000000014 -1.1971999999999998 -0.8899999999999995
H -1.042568725303798 1.3125267599221961 3.356591752811e-05
H -1.8673314438672441 0.01019559694258354 -0.8899664340824716
H -1.867284745139083 0.010201464003445015 0.8899817049892271
H 0.8934541540209766 1.252237303830244 -1.081854723388521e-16
