9
molecule
C 0.007200000000000095 -0.5687 0.0
C -1.2853999999999999 0.2499 0.0
O 1.1304 0.3147 0.0
H 0.0391999999999999 -1.1972 0.89
H 0.0391999999999999 -1.1972 -0.89
H -1.3174999999999997 0.8784 0.89
H -1.3174999999999997 0.8784 -0.89
H -2.1422 -0.42389999999999994 0.0
H 2.054235009620224 0.6004418502774838 0.0
