9
molecule
C 0.007200000000000095 -0.5687 0.0
C -1.2854000000000003 0.24989999999999968 0.0
O 1.4673599999999996 0.57972 0.0
H -1.1712163906278614 1.1093872874107331 0.6605954632981443
H 0.03920000000000001 -1.1971999999999998 -0.8899999999999999
H 0.03920000000000001 -1.1971999999999998 0.8899999999999999
H 1.7531018502774833 -0.344115009620224 0.0
H -2.1090411629467276 -0.37154095678590404 0.35148122557084277
H -1.4969406268685708 0.5950565425234364 -1.0120574017007724
