19
mol
O   -0.9048   -1.1011    0.4525 
C    1.5435    0.6803   -0.1284 
C    0.3529    1.4858    0.3936 
C    1.4560   -0.8269    0.1024 
C   -0.9219    1.2396   -0.4090 
C    0.1693   -1.4637   -0.4046 
C   -1.6949   -0.0141   -0.0065 
H    1.6722    0.8738   -1.2008 
H    2.4546    1.0483    0.3595 
H    0.1884    1.2917    1.4598 
H    0.6091    2.5489    0.3033 
H    2.3116   -1.3028   -0.3908 
H    1.5532   -1.0186    1.1783 
H   -1.5934    2.1009   -0.3062 
H   -0.6742    1.1855   -1.4766 
H   -0.0380   -1.2220   -1.4535 
H    0.2707   -2.5522   -0.3367 
H   -2.3757    0.2377    0.8144 
H   -2.3235   -0.3535   -0.8380 
