18
mol
O    1.2826    1.3067    0.2210
C   -0.2906   -0.5365    0.1519
C    1.0562    0.0123   -0.3302
C   -1.4621    0.3484   -0.2829
C    2.2076   -0.8988    0.0734
C   -2.7937   -0.2322    0.1668
H   -0.2908   -0.6021    1.2474
H   -0.4334   -1.5516   -0.2381
H    1.0468    0.1175   -1.4206
H   -1.4653    0.4500   -1.3743
H   -1.3532    1.3548    0.1371
H    2.2717   -0.9933    1.1631
H    2.0946   -1.8976   -0.3589
H    3.1618   -0.4785   -0.2623
H   -3.6167    0.4141   -0.1542
H   -2.8355   -0.3192    1.2572
H   -2.9543   -1.2256   -0.2640
H    1.2822    1.2230    1.1899
