17
mol
C    0.0000    0.3478   -0.0228 
C    1.2621   -0.5140   -0.0001 
C   -1.2621   -0.5140   -0.0001 
C    2.5198    0.3401    0.0115 
C   -2.5199    0.3401    0.0115 
H    0.0000    0.9783   -0.9202 
H    0.0000    1.0201    0.8439 
H    1.2800   -1.1710   -0.8775 
H    1.2583   -1.1576    0.8874 
H   -1.2799   -1.1710   -0.8774 
H   -1.2582   -1.1576    0.8873 
H    2.5484    0.9847    0.8958 
H    2.5708    0.9752   -0.8788 
H    3.4101   -0.2964    0.0264 
H   -2.5484    0.9848    0.8958  
H   -3.4101   -0.2964    0.0263 
H   -2.5709    0.9750   -0.8787 
