16
molecule
O 1.6557840707337235 -1.222672003990654 0.8575976245709122
O 2.2981910115870297 -0.6728344887945518 -1.6001711947638295
O 0.900640272882264 0.5522888249045443 -2.8337227927491204
C 0.26300711731851784 0.07466719927558467 -0.5889071493659903
C 0.5143220776268376 -0.5235879739491004 0.6580232043074142
C -0.9262406970104768 0.7913340639394699 -0.7626398836541823
C -0.4257980644404954 -0.3880683532938781 1.6853242892886964
C -1.8561096689555956 0.9244080082978526 0.25508491452821336
C -1.5968270244094174 0.32653852926536353 1.4864062145894263
C 1.1611920340052015 0.01855116971924888 -1.7759899197028326
H -1.0920166037436483 1.2424398954349636 -1.7362507493561063
H -0.2265408847409588 -0.8531784859287477 2.649736183441554
H -2.771301740384138 1.4856094876190633 0.0938234562703781
H -2.311045917823347 0.41563402665275645 2.301121921386948
H 1.6527479802530605 -1.5583538772908205 1.7635607253432923
H 2.7599960371014434 -0.6127760218610948 -2.452996844134773
