16
molecule
O 0.6379264876407674 -2.1142815902590137 0.5083895538240505
O 2.1351522231408726 -1.0886091881359883 -1.4087056302342698
O 1.76399684228864 0.9875429786898865 -2.143942783414861
C 0.35768986326670443 0.13683366001432293 -0.4017950013841981
C 0.015440143300517349 -0.9208106110701557 0.46401807096683656
C -0.3761305247798132 1.3327601638416506 -0.344503208155016
C -1.0487904169349083 -0.750480778500702 1.3595304056828523
C -1.423224299360272 1.493631603364975 0.5400770471453962
C -1.7546991316435179 0.4370113333199202 1.395396448591358
C 1.4534755525807892 0.09457160064200303 -1.393003533496459
H -0.08694732385300435 2.1282533660646052 -1.0250828225773791
H -1.2933881725400491 -1.5795415133446002 2.016322624644797
H -1.9798193775845712 2.4251806736519903 0.5708316568640939
H -2.5765741940788027 0.5456827551519753 2.0988545287224634
H 1.354615845998053 -2.1293969457066315 -0.14640952180641303
H 2.8216721489040713 -0.9991029618138099 -2.0899512548049763
