15
mol
C   -0.9825    0.0000    0.0001 
C   -0.2850    1.2079    0.0001 
C   -0.2852   -1.2079    0.0000 
C   -2.4741    0.0001   -0.0002 
C    1.1099    1.2080   -0.0001 
C    1.1097   -1.2080    0.0000
C    1.8072    0.0000   -0.0001
H   -0.8169    2.1557   -0.0017 
H   -0.8172   -2.1556   -0.0018 
H   -2.8694   -0.8801    0.5183
H   -2.8694    0.8808    0.5175
H   -2.8495   -0.0004   -1.0283 
H    1.6531    2.1484   -0.0007 
H    1.6529   -2.1485   -0.0005 
H    2.8933   -0.0001   -0.0004  
