20
Hexane
C   2.142   1.395  -8.932
C   3.631   1.416  -8.537
C   4.203  -0.012  -8.612
C   5.691   0.009  -8.218
C   6.263  -1.418  -8.293
C   7.750  -1.397  -7.899
H   1.604   0.760  -8.260
H   1.745   2.388  -8.880
H   2.043   1.024  -9.930
H   4.169   2.051  -9.210
H   3.731   1.788  -7.539
H   3.665  -0.647  -7.940
H   4.104  -0.384  -9.610
H   5.793   0.388  -7.201
H   6.240   0.656  -8.903
H   6.162  -1.797  -9.309
H   5.715  -2.065  -7.608
H   8.155  -2.407  -7.951
H   8.299  -0.750  -8.583
H   7.852  -1.018  -6.882